LAMMPS (18 Jun 2019)
# Uniaxial tensile loading

#-----------------------Initialize
clear
units metal
dimension 3
boundary p p p
atom_style atomic
variable latparam equal 4.05

#-------------------- Create atom
lattice     fcc 4.05
Lattice spacing in x,y,z = 4.05 4.05 4.05

region      whole block 0 10 0 10 0 10
#region ID style args keyword arg

create_box  1 whole
Created orthogonal box = (0 0 0) to (40.5 40.5 40.5)
#create_box N region-ID keyword value ... N--> atom types

region       upper block INF INF INF INF INF INF units box
lattice      fcc 4.05 orient x 1 0 0 orient y 0 1 0 orient z 0 0 1
Lattice spacing in x,y,z = 4.05 4.05 4.05
create_atoms 1 region upper
Created 4000 atoms

#---------- Define Interatomic potential
pair_style eam/alloy
pair_coeff * * Al99.eam.alloy Al

#---------------Define settings
#compute ID group-ID style args:ID = user-assigned name for the computation
#                               group-ID = ID of the group of atoms to perform the computation on
#                               style = one of a list of possible style names (see below)
compute csym all centro/atom fcc
compute peratom all pe/atom

# ---------- Run Minimization ---------------------
reset_timestep 0
timestep 0.001

#velocity group-ID style args keyword value ...
# group-ID = ID of group of atoms whose velocity will be changed
# style = create or set or scale or ramp or zero
velocity all create 300 12345 mom yes rot no # 300-temp, 12345-random seed
fix 1 all npt temp 10 10 1 iso 0 0 1 drag 1

# Set thermo output
thermo 1000 #output thermodynamics every N timesteps
thermo_style custom step lx ly lz press pxx pyy pzz pe temp

# Run for at least 10 picosecond (assuming 1 fs timestep)
run 20000 # 20 run 20000 steps, here the number is step
  update every 1 steps, delay 10 steps, check yes
Step Lx Ly Lz Press Pxx Pyy Pzz PotEng Temp
0         40.5         40.5         40.5    2496.1233    2446.9902    2534.6541    2506.7256       -13440          300
Averages over the last 11 of 21 rows, steps 10000 to 20000:
Lx Ly Lz Press Pxx Pyy Pzz PotEng Temp
40.5048 40.5048 40.5048 0.220756 -2.03069 2.80773 -0.114767 -13433.6 12.1758
Loop time of 47.647 on 4 procs for 20000 steps with 4000 atoms

unfix 1

# Store final cell length for strain calculations
variable tmp equal "lx"
variable L0 equal 40.5041318387861
Initial Length, L0: 40.5041318387861

######################################
# DEFORMATION
reset_timestep	0

fix		1 all npt temp 10 10 1 y 0 0 1 z 0 0 1 drag 1
variable srate equal 1.0e10
variable srate1 equal "-v_srate / 1.0e12"
fix		2 all deform 1 x erate -0.01 units box remap x

# Output strain and stress info to file
# for units metal, pressure is in [bars] = 100 [kPa] = 1/10000 [GPa]
# p2, p3, p4 are in GPa
variable strain equal "(lx - v_L0)/v_L0"
variable p1 equal "v_strain"
variable p2 equal "-pxx/10000"
variable p3 equal "-pyy/10000"
variable p4 equal "-pzz/10000"

# Use cfg for AtomEye
dump 		1 all cfg 200 dump.comp_*.cfg mass type xs ys zs c_csym c_peratom fx fy fz
dump_modify 1 element Al

# Display thermo
thermo 	200
thermo_style	custom step v_strain temp v_p2 v_p3 v_p4 ke pe press

run		40000
Step v_strain Temp v_p2 v_p3 v_p4 KinEng PotEng Press
0 -1.7542475e-16    10.295231 2.6201485e-06 -0.00012480018 8.1112809e-05    5.3217216   -13434.583   0.13689075
Averages over the last 101 of 201 rows, steps 20000 to 40000:
v_strain Temp v_p2 v_p3 v_p4 KinEng PotEng Press
-0.3 41.9411 -2.43102 -0.000343281 0.000171858 21.6798 -13328 8103.96
Loop time of 120.524 on 4 procs for 40000 steps with 4000 atoms

######################################
# SIMULATION DONE
print "All done"
All done
