LAMMPS (18 Jun 2019)
# Uniaxial tensile loading

#-----------------------Initialize
clear
units metal
dimension 3
boundary p p p
atom_style atomic
atom_modify map array
variable latparam equal 4.05

#-------------------- Create atom
lattice     fcc 4.05
Lattice spacing in x,y,z = 4.05 4.05 4.05
region      whole block 0 10 0 10 0 10
create_box  1 whole
Created orthogonal box = (0 0 0) to (40.5 40.5 40.5)

lattice      fcc 4.05 orient x 1 0 0 orient y 0 1 0 orient z 0 0 1
Lattice spacing in x,y,z = 4.05 4.05 4.05
create_atoms 1 box
Created 4000 atoms

#---------- Define Interatomic potential
pair_style eam/alloy
pair_coeff * * Al99.eam.alloy Al

#---------------Define settings
compute csym all centro/atom fcc
compute peratom all pe/atom

# ---------- Run Minimization ---------------------
reset_timestep 0
timestep 0.001
velocity all create 300 12345 mom yes rot no
fix 1 all npt temp 300 300 1 iso 0 0 1 drag 1

# Set thermo output
thermo 2000
thermo_style custom step lx ly lz press pxx pyy pzz pe temp

# Run for at least 10 picosecond (assuming 1 fs timestep)
run 40000 # 20 ps,20000 fs
  update every 1 steps, delay 10 steps, check yes
Step Lx Ly Lz Press Pxx Pyy Pzz PotEng Temp
0         40.5         40.5         40.5    2496.1233    2446.9902    2534.6541    2506.7256       -13440          300
Averages over the last 11 of 21 rows, steps 20000 to 40000:
Lx Ly Lz Press Pxx Pyy Pzz PotEng Temp
40.6487 40.6487 40.6487 117.863 40.4256 115.381 197.783 -13284.8 299.31
Loop time of 111.241 on 8 procs for 40000 steps with 4000 atoms

unfix 1

# Store final cell length for strain calculations
variable tmp equal "lx"
variable L0 equal 40.6510195693978
Initial Length, L0: 40.6510195693978

######################################
# DEFORMATION
reset_timestep	0

fix		1 all npt temp 300 300 1 y 0 0 1 z 0 0 1 drag 1
variable srate equal 1.0e10
variable srate1 equal "v_srate / 1.0e12"
fix		2 all deform 1 x erate 0.01 units box remap x

# Output strain and stress info to file
# for units metal, pressure is in [bars] = 100 [kPa] = 1/10000 [GPa]
# p2, p3, p4 are in GPa
variable strain equal "(lx - v_L0)/v_L0"
variable p1 equal "v_strain"
variable p2 equal "-pxx/10000"
variable p3 equal "-pyy/10000"
variable p4 equal "-pzz/10000"

# Use cfg for AtomEye
dump 		1 all cfg 250 dump.tensile_*.cfg mass type xs ys zs c_csym c_peratom fx fy fz
dump_modify 1 element Al

# Display thermo
thermo 	1000
thermo_style	custom step v_strain temp v_p2 v_p3 v_p4 ke pe press

run		20000
Step v_strain Temp v_p2 v_p3 v_p4 KinEng PotEng Press
0 -1.0487453e-15    297.52409 0.0082515749 0.0044417465 -0.0022234179    153.79357   -13283.918   -34.899678
Averages over the last 11 of 21 rows, steps 10000 to 20000:
v_strain Temp v_p2 v_p3 v_p4 KinEng PotEng Press
0.15 338.623 4.68023 0.00775917 0.0165524 175.038 -13058.8 -15681.8
Loop time of 71.5475 on 8 procs for 20000 steps with 4000 atoms

######################################
# SIMULATION DONE
print "All done"
All done
